 /*--------------------------------*- C++ -*----------------------------------*\ 
 | =========                 |                                                 | 
 | \\      /  F ield         | OpenFOAM: The Open Source CFD Toolbox           | 
 |  \\    /   O peration     | Version:  2.1.0                                 | 
 |   \\  /    A nd           | Web:      www.OpenFOAM.org                      | 
 |    \\/     M anipulation  |                                                 | 
 \*---------------------------------------------------------------------------*/ 
 FoamFile                                                                        
 {                                                                               
     version     2.0;                                                            
     format      ascii;                                                          
     class       dictionary;                                                     
     object      blockMeshDict;                                                  
 }                                                                               
 // * * * * * * * * * * * * * * * * * * * * * * * * * * * * * * * * * * * * * // 
 
convertToMeters 1; 
 
 
vertices 
( 
(      -0.031200000000      -0.135997647038      -0.761280000000 ) 
(       0.031200000000      -0.135997647038      -0.761280000000 ) 
(       0.031200000000       0.135997647038      -0.761280000000 ) 
(      -0.031200000000       0.135997647038      -0.761280000000 ) 
(      -0.090665098026      -0.187200000000      -0.761280000000 ) 
(       0.090665098026      -0.187200000000      -0.761280000000 ) 
(       0.090665098026       0.187200000000      -0.761280000000 ) 
(      -0.090665098026       0.187200000000      -0.761280000000 ) 
(      -0.698880000000      -0.187200000000      -0.761280000000 ) 
(      -0.698880000000       0.187200000000      -0.761280000000 ) 
(      -0.698880000000       0.416000000000      -0.761280000000 ) 
(      -0.090665098026       0.416000000000      -0.761280000000 ) 
(       0.090665098026       0.416000000000      -0.761280000000 ) 
(       0.698880000000      -0.187200000000      -0.761280000000 ) 
(       0.698880000000       0.187200000000      -0.761280000000 ) 
(       0.698880000000       0.416000000000      -0.761280000000 ) 
(      -2.080000000000      -0.187200000000      -0.761280000000 ) 
(      -2.080000000000       0.416000000000      -0.761280000000 ) 
(      -2.080000000000       1.218880000000      -0.761280000000 ) 
(      -0.698880000000       1.218880000000      -0.761280000000 ) 
(       0.698880000000       1.218880000000      -0.761280000000 ) 
(       6.240000000000      -0.187200000000      -0.761280000000 ) 
(       6.240000000000       0.416000000000      -0.761280000000 ) 
(       6.240000000000       1.218880000000      -0.761280000000 ) 
(      -2.080000000000       0.187200000000      -0.761280000000 ) 
(       6.240000000000       0.187200000000      -0.761280000000 ) 
(      -0.090665098026       1.218880000000      -0.761280000000 ) 
(       0.090665098026       1.218880000000      -0.761280000000 ) 
(      -0.031200000000      -0.135997647038      -0.095500000000 ) 
(       0.031200000000      -0.135997647038      -0.095500000000 ) 
(       0.031200000000       0.135997647038      -0.095500000000 ) 
(      -0.031200000000       0.135997647038      -0.095500000000 ) 
(      -0.090665098026      -0.187200000000      -0.095500000000 ) 
(       0.090665098026      -0.187200000000      -0.095500000000 ) 
(       0.090665098026       0.187200000000      -0.095500000000 ) 
(      -0.090665098026       0.187200000000      -0.095500000000 ) 
(      -0.698880000000      -0.187200000000      -0.095500000000 ) 
(      -0.698880000000       0.187200000000      -0.095500000000 ) 
(      -0.698880000000       0.416000000000      -0.095500000000 ) 
(      -0.090665098026       0.416000000000      -0.095500000000 ) 
(       0.090665098026       0.416000000000      -0.095500000000 ) 
(       0.698880000000      -0.187200000000      -0.095500000000 ) 
(       0.698880000000       0.187200000000      -0.095500000000 ) 
(       0.698880000000       0.416000000000      -0.095500000000 ) 
(      -2.080000000000      -0.187200000000      -0.095500000000 ) 
(      -2.080000000000       0.416000000000      -0.095500000000 ) 
(      -2.080000000000       1.218880000000      -0.095500000000 ) 
(      -0.698880000000       1.218880000000      -0.095500000000 ) 
(       0.698880000000       1.218880000000      -0.095500000000 ) 
(       6.240000000000      -0.187200000000      -0.095500000000 ) 
(       6.240000000000       0.416000000000      -0.095500000000 ) 
(       6.240000000000       1.218880000000      -0.095500000000 ) 
(      -2.080000000000       0.187200000000      -0.095500000000 ) 
(       6.240000000000       0.187200000000      -0.095500000000 ) 
(      -0.090665098026       1.218880000000      -0.095500000000 ) 
(       0.090665098026       1.218880000000      -0.095500000000 ) 
(      -0.031200000000      -0.135997647038       0.095500000000 ) 
(       0.031200000000      -0.135997647038       0.095500000000 ) 
(       0.031200000000       0.135997647038       0.095500000000 ) 
(      -0.031200000000       0.135997647038       0.095500000000 ) 
(      -0.090665098026      -0.187200000000       0.095500000000 ) 
(       0.090665098026      -0.187200000000       0.095500000000 ) 
(       0.090665098026       0.187200000000       0.095500000000 ) 
(      -0.090665098026       0.187200000000       0.095500000000 ) 
(      -0.698880000000      -0.187200000000       0.095500000000 ) 
(      -0.698880000000       0.187200000000       0.095500000000 ) 
(      -0.698880000000       0.416000000000       0.095500000000 ) 
(      -0.090665098026       0.416000000000       0.095500000000 ) 
(       0.090665098026       0.416000000000       0.095500000000 ) 
(       0.698880000000      -0.187200000000       0.095500000000 ) 
(       0.698880000000       0.187200000000       0.095500000000 ) 
(       0.698880000000       0.416000000000       0.095500000000 ) 
(      -2.080000000000      -0.187200000000       0.095500000000 ) 
(      -2.080000000000       0.416000000000       0.095500000000 ) 
(      -2.080000000000       1.218880000000       0.095500000000 ) 
(      -0.698880000000       1.218880000000       0.095500000000 ) 
(       0.698880000000       1.218880000000       0.095500000000 ) 
(       6.240000000000      -0.187200000000       0.095500000000 ) 
(       6.240000000000       0.416000000000       0.095500000000 ) 
(       6.240000000000       1.218880000000       0.095500000000 ) 
(      -2.080000000000       0.187200000000       0.095500000000 ) 
(       6.240000000000       0.187200000000       0.095500000000 ) 
(      -0.090665098026       1.218880000000       0.095500000000 ) 
(       0.090665098026       1.218880000000       0.095500000000 ) 
(      -0.031200000000      -0.135997647038       0.761280000000 ) 
(       0.031200000000      -0.135997647038       0.761280000000 ) 
(       0.031200000000       0.135997647038       0.761280000000 ) 
(      -0.031200000000       0.135997647038       0.761280000000 ) 
(      -0.090665098026      -0.187200000000       0.761280000000 ) 
(       0.090665098026      -0.187200000000       0.761280000000 ) 
(       0.090665098026       0.187200000000       0.761280000000 ) 
(      -0.090665098026       0.187200000000       0.761280000000 ) 
(      -0.698880000000      -0.187200000000       0.761280000000 ) 
(      -0.698880000000       0.187200000000       0.761280000000 ) 
(      -0.698880000000       0.416000000000       0.761280000000 ) 
(      -0.090665098026       0.416000000000       0.761280000000 ) 
(       0.090665098026       0.416000000000       0.761280000000 ) 
(       0.698880000000      -0.187200000000       0.761280000000 ) 
(       0.698880000000       0.187200000000       0.761280000000 ) 
(       0.698880000000       0.416000000000       0.761280000000 ) 
(      -2.080000000000      -0.187200000000       0.761280000000 ) 
(      -2.080000000000       0.416000000000       0.761280000000 ) 
(      -2.080000000000       1.218880000000       0.761280000000 ) 
(      -0.698880000000       1.218880000000       0.761280000000 ) 
(       0.698880000000       1.218880000000       0.761280000000 ) 
(       6.240000000000      -0.187200000000       0.761280000000 ) 
(       6.240000000000       0.416000000000       0.761280000000 ) 
(       6.240000000000       1.218880000000       0.761280000000 ) 
(      -2.080000000000       0.187200000000       0.761280000000 ) 
(       6.240000000000       0.187200000000       0.761280000000 ) 
(      -0.090665098026       1.218880000000       0.761280000000 ) 
(       0.090665098026       1.218880000000       0.761280000000 ) 
); 
 
 
blocks 
( 
hex (     0     1     2     3    28    29    30    31 ) (   14    34     7) simpleGrading (      1.000000000000       1.000000000000       0.200000000000) 
hex (     0     4     5     1    28    32    33    29 ) (   15    14     7) simpleGrading (      1.000000000000       1.000000000000       0.200000000000) 
hex (     1     5     6     2    29    33    34    30 ) (   15    34     7) simpleGrading (      1.000000000000       1.000000000000       0.200000000000) 
hex (     2     6     7     3    30    34    35    31 ) (   15    14     7) simpleGrading (      1.000000000000       1.000000000000       0.200000000000) 
hex (     3     7     4     0    31    35    32    28 ) (   15    34     7) simpleGrading (      1.000000000000       1.000000000000       0.200000000000) 
hex (     5    13    14     6    33    41    42    34 ) (   44    34     7) simpleGrading (      1.000000000000       1.000000000000       0.200000000000) 
hex (     8     4     7     9    36    32    35    37 ) (   44    34     7) simpleGrading (      1.000000000000       1.000000000000       0.200000000000) 
hex (     9     7    11    10    37    35    39    38 ) (   44    18     7) simpleGrading (      1.000000000000       1.000000000000       0.200000000000) 
hex (     7     6    12    11    35    34    40    39 ) (   14    18     7) simpleGrading (      1.000000000000       1.000000000000       0.200000000000) 
hex (     6    14    15    12    34    42    43    40 ) (   44    18     7) simpleGrading (      1.000000000000       1.000000000000       0.200000000000) 
hex (    16     8     9    24    44    36    37    52 ) (   32    34     7) simpleGrading (      0.200000000000       1.000000000000       0.200000000000) 
hex (    17    10    19    18    45    38    47    46 ) (   32    19     7) simpleGrading (      0.200000000000       5.000000000000       0.200000000000) 
hex (    11    12    27    26    39    40    55    54 ) (   14    19     7) simpleGrading (      1.000000000000       5.000000000000       0.200000000000) 
hex (    13    21    25    14    41    49    53    42 ) (  125    34     7) simpleGrading (      5.000000000000       1.000000000000       0.200000000000) 
hex (    15    22    23    20    43    50    51    48 ) (  125    19     7) simpleGrading (      5.000000000000       5.000000000000       0.200000000000) 
hex (    24     9    10    17    52    37    38    45 ) (   32    18     7) simpleGrading (      0.200000000000       1.000000000000       0.200000000000) 
hex (    10    11    26    19    38    39    54    47 ) (   44    19     7) simpleGrading (      1.000000000000       5.000000000000       0.200000000000) 
hex (    12    15    20    27    40    43    48    55 ) (   44    19     7) simpleGrading (      1.000000000000       5.000000000000       0.200000000000) 
hex (    14    25    22    15    42    53    50    43 ) (  125    18     7) simpleGrading (      5.000000000000       1.000000000000       0.200000000000) 
hex (    33    41    42    34    61    69    70    62 ) (   44    34    10) simpleGrading (      1.000000000000       1.000000000000       1.000000000000) 
hex (    36    32    35    37    64    60    63    65 ) (   44    34    10) simpleGrading (      1.000000000000       1.000000000000       1.000000000000) 
hex (    37    35    39    38    65    63    67    66 ) (   44    18    10) simpleGrading (      1.000000000000       1.000000000000       1.000000000000) 
hex (    35    34    40    39    63    62    68    67 ) (   14    18    10) simpleGrading (      1.000000000000       1.000000000000       1.000000000000) 
hex (    34    42    43    40    62    70    71    68 ) (   44    18    10) simpleGrading (      1.000000000000       1.000000000000       1.000000000000) 
hex (    44    36    37    52    72    64    65    80 ) (   32    34    10) simpleGrading (      0.200000000000       1.000000000000       1.000000000000) 
hex (    45    38    47    46    73    66    75    74 ) (   32    19    10) simpleGrading (      0.200000000000       5.000000000000       1.000000000000) 
hex (    39    40    55    54    67    68    83    82 ) (   14    19    10) simpleGrading (      1.000000000000       5.000000000000       1.000000000000) 
hex (    41    49    53    42    69    77    81    70 ) (  125    34    10) simpleGrading (      5.000000000000       1.000000000000       1.000000000000) 
hex (    43    50    51    48    71    78    79    76 ) (  125    19    10) simpleGrading (      5.000000000000       5.000000000000       1.000000000000) 
hex (    52    37    38    45    80    65    66    73 ) (   32    18    10) simpleGrading (      0.200000000000       1.000000000000       1.000000000000) 
hex (    38    39    54    47    66    67    82    75 ) (   44    19    10) simpleGrading (      1.000000000000       5.000000000000       1.000000000000) 
hex (    40    43    48    55    68    71    76    83 ) (   44    19    10) simpleGrading (      1.000000000000       5.000000000000       1.000000000000) 
hex (    42    53    50    43    70    81    78    71 ) (  125    18    10) simpleGrading (      5.000000000000       1.000000000000       1.000000000000) 
hex (    56    57    58    59    84    85    86    87 ) (   14    34    10) simpleGrading (      1.000000000000       1.000000000000       5.000000000000) 
hex (    56    60    61    57    84    88    89    85 ) (   15    14    10) simpleGrading (      1.000000000000       1.000000000000       5.000000000000) 
hex (    57    61    62    58    85    89    90    86 ) (   15    34    10) simpleGrading (      1.000000000000       1.000000000000       5.000000000000) 
hex (    58    62    63    59    86    90    91    87 ) (   15    14    10) simpleGrading (      1.000000000000       1.000000000000       5.000000000000) 
hex (    59    63    60    56    87    91    88    84 ) (   15    34    10) simpleGrading (      1.000000000000       1.000000000000       5.000000000000) 
hex (    61    69    70    62    89    97    98    90 ) (   44    34    10) simpleGrading (      1.000000000000       1.000000000000       5.000000000000) 
hex (    64    60    63    65    92    88    91    93 ) (   44    34    10) simpleGrading (      1.000000000000       1.000000000000       5.000000000000) 
hex (    65    63    67    66    93    91    95    94 ) (   44    18    10) simpleGrading (      1.000000000000       1.000000000000       5.000000000000) 
hex (    63    62    68    67    91    90    96    95 ) (   14    18    10) simpleGrading (      1.000000000000       1.000000000000       5.000000000000) 
hex (    62    70    71    68    90    98    99    96 ) (   44    18    10) simpleGrading (      1.000000000000       1.000000000000       5.000000000000) 
hex (    72    64    65    80   100    92    93   108 ) (   32    34    10) simpleGrading (      0.200000000000       1.000000000000       5.000000000000) 
hex (    73    66    75    74   101    94   103   102 ) (   32    19    10) simpleGrading (      0.200000000000       5.000000000000       5.000000000000) 
hex (    67    68    83    82    95    96   111   110 ) (   14    19    10) simpleGrading (      1.000000000000       5.000000000000       5.000000000000) 
hex (    69    77    81    70    97   105   109    98 ) (  125    34    10) simpleGrading (      5.000000000000       1.000000000000       5.000000000000) 
hex (    71    78    79    76    99   106   107   104 ) (  125    19    10) simpleGrading (      5.000000000000       5.000000000000       5.000000000000) 
hex (    80    65    66    73   108    93    94   101 ) (   32    18    10) simpleGrading (      0.200000000000       1.000000000000       5.000000000000) 
hex (    66    67    82    75    94    95   110   103 ) (   44    19    10) simpleGrading (      1.000000000000       5.000000000000       5.000000000000) 
hex (    68    71    76    83    96    99   104   111 ) (   44    19    10) simpleGrading (      1.000000000000       5.000000000000       5.000000000000) 
hex (    70    81    78    71    98   109   106    99 ) (  125    18    10) simpleGrading (      5.000000000000       1.000000000000       5.000000000000) 
); 
 
edges 
( 
 arc     5     6 (       0.208000000000       0.000000000000      -0.761280000000 ) 
 arc     6     7 (       0.000000000000       0.208000000000      -0.761280000000 ) 
 arc     7     4 (      -0.208000000000       0.000000000000      -0.761280000000 ) 
 arc    33    34 (       0.208000000000       0.000000000000      -0.095500000000 ) 
 arc    34    35 (       0.000000000000       0.208000000000      -0.095500000000 ) 
 arc    35    32 (      -0.208000000000       0.000000000000      -0.095500000000 ) 
 arc    61    62 (       0.208000000000       0.000000000000       0.095500000000 ) 
 arc    62    63 (       0.000000000000       0.208000000000       0.095500000000 ) 
 arc    63    60 (      -0.208000000000       0.000000000000       0.095500000000 ) 
 arc    89    90 (       0.208000000000       0.000000000000       0.761280000000 ) 
 arc    90    91 (       0.000000000000       0.208000000000       0.761280000000 ) 
 arc    91    88 (      -0.208000000000       0.000000000000       0.761280000000 ) 
); 
 
boundary 
( 
     Front_and_Back 
     { 
         type  empty ; 
         faces  
         ( 
         (    87    84    85    86 ) 
         (    85    84    88    89 ) 
         (    86    85    89    90 ) 
         (    87    86    90    91 ) 
         (    84    87    91    88 ) 
         (    90    89    97    98 ) 
         (    93    92    88    91 ) 
         (    94    93    91    95 ) 
         (    95    91    90    96 ) 
         (    96    90    98    99 ) 
         (   108   100    92    93 ) 
         (   102   101    94   103 ) 
         (   110    95    96   111 ) 
         (    98    97   105   109 ) 
         (   104    99   106   107 ) 
         (   101   108    93    94 ) 
         (   103    94    95   110 ) 
         (   111    96    99   104 ) 
         (    99    98   109   106 ) 
         (     0     3     2     1 ) 
         (     0     1     5     4 ) 
         (     1     2     6     5 ) 
         (     2     3     7     6 ) 
         (     3     0     4     7 ) 
         (     5     6    14    13 ) 
         (     8     9     7     4 ) 
         (     9    10    11     7 ) 
         (     7    11    12     6 ) 
         (     6    12    15    14 ) 
         (    16    24     9     8 ) 
         (    17    18    19    10 ) 
         (    11    26    27    12 ) 
         (    13    14    25    21 ) 
         (    15    20    23    22 ) 
         (    24    17    10     9 ) 
         (    10    19    26    11 ) 
         (    12    27    20    15 ) 
         (    14    15    22    25 ) 
         ); 
     } 
     Inlet 
     { 
         type  patch ; 
         faces  
         ( 
         (    16    44    52    24 ) 
         (    17    45    46    18 ) 
         (    24    52    45    17 ) 
         (    44    72    80    52 ) 
         (    45    73    74    46 ) 
         (    52    80    73    45 ) 
         (    72   100   108    80 ) 
         (    73   101   102    74 ) 
         (    80   108   101    73 ) 
         ); 
     } 
     Outlet 
     { 
         type  patch ; 
         faces  
         ( 
         (    49    21    25    53 ) 
         (    50    22    23    51 ) 
         (    53    25    22    50 ) 
         (    77    49    53    81 ) 
         (    78    50    51    79 ) 
         (    81    53    50    78 ) 
         (   105    77    81   109 ) 
         (   106    78    79   107 ) 
         (   109    81    78   106 ) 
         ); 
     } 
     Top 
     { 
         type  wall ; 
         faces  
         ( 
         (    46    47    19    18 ) 
         (    54    55    27    26 ) 
         (    48    51    23    20 ) 
         (    47    54    26    19 ) 
         (    55    48    20    27 ) 
         (    74    75    47    46 ) 
         (    82    83    55    54 ) 
         (    76    79    51    48 ) 
         (    75    82    54    47 ) 
         (    83    76    48    55 ) 
         (   102   103    75    74 ) 
         (   110   111    83    82 ) 
         (   104   107    79    76 ) 
         (   103   110    82    75 ) 
         (   111   104    76    83 ) 
         ); 
     } 
     Bottom 
     { 
         type  wall ; 
         faces  
         ( 
         (     5    13    41    33 ) 
         (     8     4    32    36 ) 
         (    16     8    36    44 ) 
         (    13    21    49    41 ) 
         (    33    41    69    61 ) 
         (    36    32    60    64 ) 
         (    44    36    64    72 ) 
         (    41    49    77    69 ) 
         (    61    69    97    89 ) 
         (    64    60    88    92 ) 
         (    72    64    92   100 ) 
         (    69    77   105    97 ) 
         (    32     4     5    33 ) 
         (    88    60    61    89 ) 
         ); 
     } 
     Wheel 
     { 
         type  wall ; 
         faces  
         ( 
         (    56    59    58    57 ) 
         (    56    57    61    60 ) 
         (    57    58    62    61 ) 
         (    58    59    63    62 ) 
         (    59    56    60    63 ) 
         (    35    34    62    63 ) 
         (    60    32    35    63 ) 
         (    33    61    62    34 ) 
         (    31    28    29    30 ) 
         (    29    28    32    33 ) 
         (    30    29    33    34 ) 
         (    31    30    34    35 ) 
         (    28    31    35    32 ) 
         ); 
     } 
); 
 
mergePatchPairs 
( 
); 
 
 
// ************************************************************************* // 
